Distribution Open DSS/IEEE123Loadsnew01.dss
New Load.S1a   Bus1=1.1    Phases=1 Conn=Wye   Model=1 kV=2.4   kW=40.0  kvar=20.0 duty=S1a
New Load.S2b   Bus1=2.2    Phases=1 Conn=Wye   Model=1 kV=2.4   kW=20.0  kvar=10.0 duty=S2b
New Load.S4c   Bus1=4.3    Phases=1 Conn=Wye   Model=1 kV=2.4   kW=40.0  kvar=20.0 duty=S4c
New Load.S5c   Bus1=5.3    Phases=1 Conn=Wye   Model=5 kV=2.4   kW=20.0  kvar=10.0 duty=S5c
New Load.S6c   Bus1=6.3    Phases=1 Conn=Wye   Model=2 kV=2.4   kW=40.0  kvar=20.0 duty=S6c
New Load.S7a   Bus1=7.1    Phases=1 Conn=Wye   Model=1 kV=2.4   kW=20.0  kvar=10.0 duty=S7a
New Load.S9a   Bus1=9.1    Phases=1 Conn=Wye   Model=1 kV=2.4   kW=40.0  kvar=20.0 duty=S9a
New Load.S10a  Bus1=10.1   Phases=1 Conn=Wye   Model=5 kV=2.4   kW=20.0  kvar=10.0 duty=S10a
New Load.S11a  Bus1=11.1   Phases=1 Conn=Wye   Model=2 kV=2.4   kW=40.0  kvar=20.0 duty=S11a
New Load.S12b  Bus1=12.2   Phases=1 Conn=Wye   Model=1 kV=2.4   kW=20.0  kvar=10.0 duty=S12b
New Load.S16c  Bus1=16.3   Phases=1 Conn=Wye   Model=1 kV=2.4   kW=40.0  kvar=20.0 duty=S16c
New Load.S17c  Bus1=17.3   Phases=1 Conn=Wye   Model=1 kV=2.4   kW=20.0  kvar=10.0 duty=S17c
New Load.S19a  Bus1=19.1   Phases=1 Conn=Wye   Model=1 kV=2.4   kW=40.0  kvar=20.0 duty=S19a
New Load.S20a  Bus1=20.1   Phases=1 Conn=Wye   Model=5 kV=2.4   kW=40.0  kvar=20.0 duty=S20a
New Load.S22b  Bus1=22.2   Phases=1 Conn=Wye   Model=2 kV=2.4   kW=40.0  kvar=20.0 duty=S22b
New Load.S24c  Bus1=24.3   Phases=1 Conn=Wye   Model=1 kV=2.4   kW=40.0  kvar=20.0 duty=S24c
New Load.S28a  Bus1=28.1   Phases=1 Conn=Wye   Model=5 kV=2.4   kW=40.0  kvar=20.0 duty=S28a
New Load.S29a  Bus1=29.1   Phases=1 Conn=Wye   Model=2 kV=2.4   kW=40.0  kvar=20.0 duty=S29a
New Load.S30c  Bus1=30.3   Phases=1 Conn=Wye   Model=1 kV=2.4   kW=40.0  kvar=20.0 duty=S30c
New Load.S31c  Bus1=31.3   Phases=1 Conn=Wye   Model=1 kV=2.4   kW=20.0  kvar=10.0 duty=S31c
New Load.S32c  Bus1=32.3   Phases=1 Conn=Wye   Model=1 kV=2.4   kW=20.0  kvar=10.0 duty=S32c
New Load.S33a  Bus1=33.1   Phases=1 Conn=Wye   Model=5 kV=2.4   kW=40.0  kvar=20.0 duty=S33a
New Load.S34c  Bus1=34.3   Phases=1 Conn=Wye   Model=2 kV=2.4   kW=40.0  kvar=20.0 duty=S34c
New Load.S35a  Bus1=35.1.2 Phases=1 Conn=Delta Model=1 kV=4.160 kW=40.0  kvar=20.0 duty=S35a
New Load.S37a  Bus1=37.1   Phases=1 Conn=Wye   Model=2 kV=2.4   kW=40.0  kvar=20.0 duty=S37a
New Load.S38b  Bus1=38.2   Phases=1 Conn=Wye   Model=5 kV=2.4   kW=20.0  kvar=10.0 duty=S38b
New Load.S39b  Bus1=39.2   Phases=1 Conn=Wye   Model=1 kV=2.4   kW=20.0  kvar=10.0 duty=S39b
New Load.S41c  Bus1=41.3   Phases=1 Conn=Wye   Model=1 kV=2.4   kW=20.0  kvar=10.0 duty=S41c
New Load.S42a  Bus1=42.1   Phases=1 Conn=Wye   Model=1 kV=2.4   kW=20.0  kvar=10.0 duty=S42a
New Load.S43b  Bus1=43.2   Phases=1 Conn=Wye   Model=2 kV=2.4   kW=40.0  kvar=20.0 duty=S43b
New Load.S45a  Bus1=45.1   Phases=1 Conn=Wye   Model=5 kV=2.4   kW=20.0  kvar=10.0 duty=S45a
New Load.S46a  Bus1=46.1   Phases=1 Conn=Wye   Model=1 kV=2.4   kW=20.0  kvar=10.0 duty=S46a
New Load.S47   Bus1=47     Phases=3 Conn=Wye   Model=5 kV=4.160 kW=105.0 kvar=75.0 duty=S47
New Load.S48   Bus1=48     Phases=3 Conn=Wye   Model=2 kV=4.160 kW=210.0 kVAR=150.0 duty=S48
New Load.S49a  Bus1=49.1   Phases=1 Conn=Wye   Model=1 kV=2.4   kW=35.0  kvar=25.0 duty=S49a
New Load.S49b  Bus1=49.2   Phases=1 Conn=Wye   Model=1 kV=2.4   kW=70.0  kvar=50.0 duty=S49b
New Load.S49c  Bus1=49.3   Phases=1 Conn=Wye   Model=1 kV=2.4   kW=35.0  kvar=20.0 duty=S49c ! used to be 25 in on-line document 
New Load.S50c  Bus1=50.3   Phases=1 Conn=Wye   Model=1 kV=2.4   kW=40.0  kvar=20.0 duty=S50c
New Load.S51a  Bus1=51.1   Phases=1 Conn=Wye   Model=1 kV=2.4   kW=20.0  kvar=10.0 duty=S51a
New Load.S52a  Bus1=52.1   Phases=1 Conn=Wye   Model=1 kV=2.4   kW=40.0  kvar=20.0 duty=S52a
New Load.S53a  Bus1=53.1   Phases=1 Conn=Wye   Model=1 kV=2.4   kW=40.0  kvar=20.0 duty=S53a
New Load.S55a  Bus1=55.1   Phases=1 Conn=Wye   Model=2 kV=2.4   kW=20.0  kvar=10.0 duty=S55a
New Load.S56b  Bus1=56.2   Phases=1 Conn=Wye   Model=1 kV=2.4   kW=20.0  kvar=10.0 duty=S56b
New Load.S58b  Bus1=58.2   Phases=1 Conn=Wye   Model=5 kV=2.4   kW=20.0  kvar=10.0 duty=S58b
New Load.S59b  Bus1=59.2   Phases=1 Conn=Wye   Model=1 kV=2.4   kW=20.0  kvar=10.0 duty=S59b
New Load.S60a  Bus1=60.1   Phases=1 Conn=Wye   Model=1 kV=2.4   kW=20.0  kvar=10.0 duty=S60a
New Load.S62c  Bus1=62.3   Phases=1 Conn=Wye   Model=2 kV=2.4   kW=40.0  kvar=20.0 duty=S62c
New Load.S63a  Bus1=63.1   Phases=1 Conn=Wye   Model=1 kV=2.4   kW=40.0  kvar=20.0 duty=S63a
New Load.S64b  Bus1=64.2   Phases=1 Conn=Wye   Model=5 kV=2.4   kW=75.0  kvar=35.0 duty=S64b
New Load.S65a  Bus1=65.1.2 Phases=1 Conn=Delta Model=2 kV=4.160 kW=35.0  kvar=25.0 duty=S65a
New Load.S65b  Bus1=65.2.3 Phases=1 Conn=Delta Model=2 kV=4.160 kW=35.0  kvar=25.0 duty=S65b
New Load.S65c  Bus1=65.3.1 Phases=1 Conn=Delta Model=2 kV=4.160 kW=70.0  kvar=50.0 duty=S65c
New Load.S66c  Bus1=66.3   Phases=1 Conn=Wye   Model=1 kV=2.4   kW=75.0  kvar=35.0 duty=S66c
New Load.S68a  Bus1=68.1   Phases=1 Conn=Wye   Model=1 kV=2.4   kW=20.0  kvar=10.0 duty=S68a
New Load.S69a  Bus1=69.1   Phases=1 Conn=Wye   Model=1 kV=2.4   kW=40.0  kvar=20.0 duty=S69a
New Load.S70a  Bus1=70.1   Phases=1 Conn=Wye   Model=1 kV=2.4   kW=20.0  kvar=10.0 duty=S70a
New Load.S71a  Bus1=71.1   Phases=1 Conn=Wye   Model=1 kV=2.4   kW=40.0  kvar=20.0 duty=S71a
New Load.S73c  Bus1=73.3   Phases=1 Conn=Wye   Model=1 kV=2.4   kW=40.0  kvar=20.0 duty=S73c
New Load.S74c  Bus1=74.3   Phases=1 Conn=Wye   Model=2 kV=2.4   kW=40.0  kvar=20.0 duty=S74c
New Load.S75c  Bus1=75.3   Phases=1 Conn=Wye   Model=1 kV=2.4   kW=40.0  kvar=20.0 duty=S75c
New Load.S76a  Bus1=76.1.2 Phases=1 Conn=Delta Model=5 kV=4.160 kW=105.0 kvar=80.0 duty=S76a
New Load.S76b  Bus1=76.2.3 Phases=1 Conn=Delta Model=5 kV=4.160 kW=70.0  kvar=50.0 duty=S76b
New Load.S76c  Bus1=76.3.1 Phases=1 Conn=Delta Model=5 kV=4.160 kW=70.0  kvar=50.0 duty=S76c
New Load.S77b  Bus1=77.2   Phases=1 Conn=Wye   Model=1 kV=2.4   kW=40.0  kvar=20.0 duty=S77b
New Load.S79a  Bus1=79.1   Phases=1 Conn=Wye   Model=2 kV=2.4   kW=40.0  kvar=20.0 duty=S79a
New Load.S80b  Bus1=80.2   Phases=1 Conn=Wye   Model=1 kV=2.4   kW=40.0  kvar=20.0 duty=S80b
New Load.S82a  Bus1=82.1   Phases=1 Conn=Wye   Model=1 kV=2.4   kW=40.0  kvar=20.0 duty=S82a
New Load.S83c  Bus1=83.3   Phases=1 Conn=Wye   Model=1 kV=2.4   kW=20.0  kvar=10.0 duty=S83c
New Load.S84c  Bus1=84.3   Phases=1 Conn=Wye   Model=1 kV=2.4   kW=20.0  kvar=10.0 duty=S84c
New Load.S85c  Bus1=85.3   Phases=1 Conn=Wye   Model=1 kV=2.4   kW=40.0  kvar=20.0 duty=S85c
New Load.S86b  Bus1=86.2   Phases=1 Conn=Wye   Model=1 kV=2.4   kW=20.0  kvar=10.0 duty=S86b
New Load.S87b  Bus1=87.2   Phases=1 Conn=Wye   Model=1 kV=2.4   kW=40.0  kvar=20.0 duty=S87b
New Load.S88a  Bus1=88.1   Phases=1 Conn=Wye   Model=1 kV=2.4   kW=40.0  kvar=20.0 duty=S88a
New Load.S90b  Bus1=90.2   Phases=1 Conn=Wye   Model=5 kV=2.4   kW=40.0  kvar=20.0 duty=S90b
New Load.S92c  Bus1=92.3   Phases=1 Conn=Wye   Model=1 kV=2.4   kW=40.0  kvar=20.0 duty=S92c
New Load.S94a  Bus1=94.1   Phases=1 Conn=Wye   Model=1 kV=2.4   kW=40.0  kvar=20.0 duty=S94a
New Load.S95b  Bus1=95.2   Phases=1 Conn=Wye   Model=1 kV=2.4   kW=20.0  kvar=10.0 duty=S95b
New Load.S96b  Bus1=96.2   Phases=1 Conn=Wye   Model=1 kV=2.4   kW=20.0  kvar=10.0 duty=S96b
New Load.S98a  Bus1=98.1   Phases=1 Conn=Wye   Model=1 kV=2.4   kW=40.0  kvar=20.0 duty=S98a
New Load.S99b  Bus1=99.2   Phases=1 Conn=Wye   Model=1 kV=2.4   kW=40.0  kvar=20.0 duty=S99b
New Load.S100c Bus1=100.3  Phases=1 Conn=Wye   Model=2 kV=2.4   kW=40.0  kvar=20.0 duty=S100c
New Load.S102c Bus1=102.3  Phases=1 Conn=Wye   Model=1 kV=2.4   kW=20.0  kvar=10.0 duty=S102c
New Load.S103c Bus1=103.3  Phases=1 Conn=Wye   Model=1 kV=2.4   kW=40.0  kvar=20.0 duty=S103c
New Load.S104c Bus1=104.3  Phases=1 Conn=Wye   Model=1 kV=2.4   kW=40.0  kvar=20.0 duty=S104c
New Load.S106b Bus1=106.2  Phases=1 Conn=Wye   Model=1 kV=2.4   kW=40.0  kvar=20.0 duty=S106b
New Load.S107b Bus1=107.2  Phases=1 Conn=Wye   Model=1 kV=2.4   kW=40.0  kvar=20.0 duty=S107b
New Load.S109a Bus1=109.1  Phases=1 Conn=Wye   Model=1 kV=2.4   kW=40.0  kvar=20.0 duty=S109a
New Load.S111a Bus1=111.1  Phases=1 Conn=Wye   Model=1 kV=2.4   kW=20.0  kvar=10.0 duty=S111a
New Load.S112a Bus1=112.1  Phases=1 Conn=Wye   Model=5 kV=2.4   kW=20.0  kvar=10.0 duty=S112a
New Load.S113a Bus1=113.1  Phases=1 Conn=Wye   Model=2 kV=2.4   kW=40.0  kvar=20.0 duty=S113a
New Load.S114a Bus1=114.1  Phases=1 Conn=Wye   Model=1 kV=2.4   kW=100.0  kvar=50.0 duty=S114a